data_3D\Atomistic
_audit_creation_date              2018-05-07
_audit_creation_method            'Materials Studio'
_symmetry_space_group_name_H-M    'P1'
_symmetry_Int_Tables_number       1
_symmetry_cell_setting            triclinic
loop_
_symmetry_equiv_pos_as_xyz
  x,y,z
_cell_length_a                    25.0000
_cell_length_b                    16.7000
_cell_length_c                    16.8505
_cell_angle_alpha                 90.0000
_cell_angle_beta                  42.1136
_cell_angle_gamma                 90.0000
loop_
_atom_site_label
_atom_site_type_symbol
_atom_site_fract_x
_atom_site_fract_y
_atom_site_fract_z
_atom_site_U_iso_or_equiv
_atom_site_adp_type
_atom_site_occupancy
C7     C    -0.23783   0.03143   0.47918   0.00000  Uiso   1.00
C10    C    -0.18551   0.07918   0.47825   0.00000  Uiso   1.00
C12    C    -0.21844   0.14428   0.55816   0.00000  Uiso   1.00
C13    C    -0.17093   0.19014   0.55791   0.00000  Uiso   1.00
C14    C    -0.08823   0.17264   0.47796   0.00000  Uiso   1.00
C15    C    -0.05522   0.10776   0.39701   0.00000  Uiso   1.00
C16    C    -0.10251   0.06286   0.39598   0.00000  Uiso   1.00
C27    C    -0.03695   0.22173   0.47834   0.00000  Uiso   1.00
C31    C    -0.07175   0.26215   0.58381   0.00000  Uiso   1.00
C32    C    -0.02414   0.30768   0.58382   0.00000  Uiso   1.00
C33    C     0.06044   0.31368   0.47903   0.00000  Uiso   1.00
C34    C     0.09544   0.27335   0.37382   0.00000  Uiso   1.00
C35    C     0.04778   0.22895   0.37313   0.00000  Uiso   1.00
H105   H    -0.28161   0.15985   0.62158   0.00000  Uiso   1.00
H106   H    -0.19938   0.24026   0.61985   0.00000  Uiso   1.00
H107   H     0.00739   0.09062   0.33435   0.00000  Uiso   1.00
H108   H    -0.07360   0.01547   0.32968   0.00000  Uiso   1.00
H117   H    -0.13596   0.25773   0.66799   0.00000  Uiso   1.00
H118   H    -0.05367   0.33708   0.66712   0.00000  Uiso   1.00
H119   H     0.16009   0.27683   0.29073   0.00000  Uiso   1.00
H120   H     0.07796   0.20119   0.28867   0.00000  Uiso   1.00
C1     C     0.61241   0.17308   0.48113   0.00000  Uiso   1.00
C2     C     0.57929   0.10848   0.56255   0.00000  Uiso   1.00
C3     C     0.62667   0.06342   0.56329   0.00000  Uiso   1.00
C4     C     0.70982   0.07932   0.48030   0.00000  Uiso   1.00
C5     C     0.74287   0.14413   0.39991   0.00000  Uiso   1.00
C6     C     0.69529   0.19013   0.40039   0.00000  Uiso   1.00
C28    C     0.56107   0.22237   0.48104   0.00000  Uiso   1.00
C46    C     0.47646   0.23031   0.58670   0.00000  Uiso   1.00
C47    C     0.42875   0.27486   0.58624   0.00000  Uiso   1.00
C48    C     0.46359   0.31467   0.48079   0.00000  Uiso   1.00
C49    C     0.54804   0.30791   0.37555   0.00000  Uiso   1.00
C50    C     0.59568   0.26222   0.37535   0.00000  Uiso   1.00
C51    C     0.41201   0.36164   0.48058   0.00000  Uiso   1.00
O52    O     0.44750   0.41387   0.39431   0.00000  Uiso   1.00
O53    O     0.33462   0.34690   0.56683   0.00000  Uiso   1.00
H101   H     0.51652   0.09172   0.62588   0.00000  Uiso   1.00
H102   H     0.59769   0.01629   0.63000   0.00000  Uiso   1.00
H103   H     0.80617   0.15934   0.33595   0.00000  Uiso   1.00
H104   H     0.72385   0.24000   0.33800   0.00000  Uiso   1.00
H129   H     0.44645   0.20297   0.67130   0.00000  Uiso   1.00
H130   H     0.36419   0.27884   0.66964   0.00000  Uiso   1.00
H131   H     0.57744   0.33685   0.29206   0.00000  Uiso   1.00
H132   H     0.65978   0.25723   0.29087   0.00000  Uiso   1.00
C8     C    -0.23779   0.94842   0.47894   0.00000  Uiso   1.00
C9     C    -0.18810   0.90031   0.48191   0.00000  Uiso   1.00
C17    C    -0.20421   0.90150   0.58305   0.00000  Uiso   1.00
C18    C    -0.15701   0.85615   0.58405   0.00000  Uiso   1.00
C19    C    -0.09130   0.80914   0.48312   0.00000  Uiso   1.00
C20    C    -0.07568   0.80813   0.38225   0.00000  Uiso   1.00
C21    C    -0.12386   0.85209   0.38236   0.00000  Uiso   1.00
C29    C    -0.03937   0.76157   0.48259   0.00000  Uiso   1.00
C36    C     0.04527   0.75635   0.37728   0.00000  Uiso   1.00
C37    C     0.09379   0.71215   0.37645   0.00000  Uiso   1.00
C38    C     0.05947   0.67022   0.48026   0.00000  Uiso   1.00
C39    C    -0.02540   0.67407   0.58499   0.00000  Uiso   1.00
C40    C    -0.07378   0.71947   0.58645   0.00000  Uiso   1.00
H109   H    -0.25360   0.93747   0.66157   0.00000  Uiso   1.00
H110   H    -0.17120   0.85900   0.66338   0.00000  Uiso   1.00
H111   H    -0.02660   0.77231   0.30329   0.00000  Uiso   1.00
H112   H    -0.10998   0.84963   0.30325   0.00000  Uiso   1.00
H121   H     0.07450   0.78710   0.29509   0.00000  Uiso   1.00
H122   H     0.15848   0.71028   0.29355   0.00000  Uiso   1.00
H123   H    -0.05463   0.64196   0.66643   0.00000  Uiso   1.00
H124   H    -0.13871   0.72009   0.66858   0.00000  Uiso   1.00
C11    C     0.71252   0.90067   0.47566   0.00000  Uiso   1.00
C22    C     0.73009   0.90065   0.37313   0.00000  Uiso   1.00
C23    C     0.68305   0.85547   0.37167   0.00000  Uiso   1.00
C24    C     0.61599   0.81014   0.47359   0.00000  Uiso   1.00
C25    C     0.59876   0.81041   0.57595   0.00000  Uiso   1.00
C26    C     0.64694   0.85393   0.57622   0.00000  Uiso   1.00
C30    C     0.56419   0.76298   0.47373   0.00000  Uiso   1.00
C41    C     0.47903   0.76344   0.57551   0.00000  Uiso   1.00
C42    C     0.43052   0.71930   0.57631   0.00000  Uiso   1.00
C43    C     0.46534   0.67174   0.47611   0.00000  Uiso   1.00
C44    C     0.55065   0.67045   0.37484   0.00000  Uiso   1.00
C45    C     0.59914   0.71572   0.37331   0.00000  Uiso   1.00
H113   H     0.78055   0.93543   0.29387   0.00000  Uiso   1.00
H114   H     0.69834   0.85712   0.29127   0.00000  Uiso   1.00
H115   H     0.54835   0.77594   0.65573   0.00000  Uiso   1.00
H116   H     0.63200   0.85233   0.65634   0.00000  Uiso   1.00
H125   H     0.44959   0.79905   0.65447   0.00000  Uiso   1.00
H126   H     0.36533   0.72211   0.65639   0.00000  Uiso   1.00
H127   H     0.58024   0.63420   0.29623   0.00000  Uiso   1.00
H128   H     0.66441   0.71233   0.29421   0.00000  Uiso   1.00
Zr54   Zr    0.40067   0.49212   0.35729   0.04604  Uiso   1.00
Zr55   Zr    0.12371   0.49227   0.60104   0.04604  Uiso   1.00
Zr56   Zr    0.23990   0.59219   0.60056   0.04604  Uiso   1.00
Zr57   Zr    0.28464   0.39248   0.35756   0.04604  Uiso   1.00
Zr58   Zr    0.23930   0.39391   0.60265   0.04604  Uiso   1.00
Zr59   Zr    0.28495   0.59072   0.35577   0.04604  Uiso   1.00
O60    O     0.31043   0.49300   0.54400   0.09771  Uiso   1.00
O61    O     0.19001   0.38922   0.54420   0.09771  Uiso   1.00
O62    O     0.19047   0.59533   0.54227   0.09771  Uiso   1.00
O63    O     0.35750   0.49154   0.28928   0.09771  Uiso   1.00
O64    O     0.33443   0.59526   0.41398   0.09771  Uiso   1.00
O65    O     0.21395   0.49157   0.41431   0.09771  Uiso   1.00
O66    O     0.33389   0.38914   0.41612   0.09771  Uiso   1.00
O67    O     0.16690   0.49311   0.66901   0.09771  Uiso   1.00
O68    O     0.04178   0.41679   0.75414   0.10044  Uiso   1.00
O69    O     0.07650   0.57056   0.56489   0.10044  Uiso   1.00
O70    O     0.48261   0.56744   0.20397   0.10044  Uiso   1.00
O71    O     0.33585   0.63993   0.56297   0.10044  Uiso   1.00
O72    O     0.40192   0.34646   0.20582   0.10044  Uiso   1.00
O73    O     0.18926   0.34534   0.39365   0.10044  Uiso   1.00
O74    O     0.12260   0.63808   0.75238   0.10044  Uiso   1.00
O75    O     0.20960   0.42485   0.75524   0.10044  Uiso   1.00
O76    O     0.27867   0.71346   0.39138   0.10044  Uiso   1.00
O77    O     0.31454   0.55990   0.20327   0.10044  Uiso   1.00
O78    O     0.24577   0.27117   0.56678   0.10044  Uiso   1.00
O79    O     0.24691   0.71448   0.56235   0.10044  Uiso   1.00
O80    O     0.31476   0.42156   0.20416   0.10044  Uiso   1.00
O81    O     0.27733   0.27019   0.39598   0.10044  Uiso   1.00
O82    O     0.21006   0.56320   0.75373   0.10044  Uiso   1.00
O83    O     0.44807   0.57095   0.39272   0.10044  Uiso   1.00
O84    O     0.04209   0.56861   0.75315   0.10044  Uiso   1.00
O85    O     0.07668   0.41340   0.56486   0.10044  Uiso   1.00
O86    O     0.48232   0.41562   0.20544   0.10044  Uiso   1.00
O87    O     0.40255   0.63559   0.20286   0.10044  Uiso   1.00
O88    O     0.12177   0.34895   0.75555   0.10044  Uiso   1.00
O89    O     0.18910   0.63791   0.39265   0.10044  Uiso   1.00
C90    C     0.05342   0.36578   0.79846   0.13493  Uiso   1.00
C91    C     0.11169   0.62309   0.47915   0.13493  Uiso   1.00
C92    C     0.47095   0.61854   0.15974   0.13493  Uiso   1.00
C93    C     0.41311   0.62441   0.47733   0.13493  Uiso   1.00
C94    C     0.47039   0.36362   0.16241   0.13493  Uiso   1.00
C95    C     0.11201   0.36060   0.47931   0.13493  Uiso   1.00
C96    C     0.05406   0.62067   0.79607   0.13493  Uiso   1.00
C97    C     0.20124   0.49429   0.79813   0.13493  Uiso   1.00
C98    C     0.26288   0.74886   0.47650   0.13493  Uiso   1.00
C99    C     0.32326   0.49047   0.16005   0.13493  Uiso   1.00
C100   C     0.26142   0.23579   0.48176   0.13493  Uiso   1.00
H133   H     0.00069   0.33405   0.87955   0.00000  Uiso   1.00
H134   H     0.52370   0.65018   0.07854   0.00000  Uiso   1.00
H135   H     0.52294   0.33119   0.08213   0.00000  Uiso   1.00
H136   H     0.00147   0.65290   0.87659   0.00000  Uiso   1.00
H137   H     0.18539   0.49479   0.87900   0.00000  Uiso   1.00
H138   H     0.26309   0.81359   0.47582   0.00000  Uiso   1.00
H139   H     0.33916   0.48998   0.07915   0.00000  Uiso   1.00
H140   H     0.26115   0.17106   0.48249   0.00000  Uiso   1.00
loop_
_geom_bond_atom_site_label_1
_geom_bond_atom_site_label_2
_geom_bond_distance
_geom_bond_site_symmetry_2
_ccdc_geom_bond_type
C7     C10     1.522   .     S
C7     C4      1.522   1_455 S
C7     C8      1.386   1_545 S
C10    C12     1.424   .     A
C10    C16     1.426   .     A
C12    C13     1.411   .     A
C12    H105    1.095   .     S
C13    C14     1.429   .     A
C13    H106    1.093   .     S
C14    C15     1.430   .     A
C14    C27     1.526   .     S
C15    C16     1.411   .     A
C15    H107    1.093   .     S
C16    H108    1.095   .     S
C27    C31     1.441   .     A
C27    C35     1.440   .     A
C31    C32     1.412   .     A
C31    H117    1.103   .     S
C32    C33     1.435   .     A
C32    H118    1.104   .     S
C33    C34     1.436   .     A
C33    C95     1.512   .     A
C34    C35     1.411   .     A
C34    H119    1.104   .     S
C35    H120    1.103   .     S
C1     C2      1.431   .     A
C1     C6      1.429   .     A
C1     C28     1.526   .     S
C2     C3      1.411   .     A
C2     H101    1.093   .     S
C3     C4      1.426   .     A
C3     H102    1.095   .     S
C4     C5      1.424   .     A
C4     C7      1.522   1_655 S
C5     C6      1.411   .     A
C5     H103    1.095   .     S
C6     H104    1.093   .     S
C28    C46     1.440   .     A
C28    C50     1.441   .     A
C46    C47     1.411   .     A
C46    H129    1.103   .     S
C47    C48     1.436   .     A
C47    H130    1.104   .     S
C48    C49     1.435   .     A
C48    C51     1.512   .     S
C49    C50     1.412   .     A
C49    H131    1.104   .     S
C50    H132    1.103   .     S
C51    O52     1.322   .     A
C51    O53     1.321   .     A
O52    Zr54    2.133   .     A
O53    Zr58    2.127   .     S
C8     C9      1.511   .     S
C8     C7      1.386   1_565 S
C8     C11     1.511   1_455 S
C9     C17     1.431   .     A
C9     C21     1.430   .     A
C17    C18     1.413   .     A
C17    H109    1.101   .     S
C18    C19     1.436   .     A
C18    H110    1.101   .     S
C19    C20     1.434   .     A
C19    C29     1.516   .     S
C20    C21     1.410   .     A
C20    H111    1.101   .     S
C21    H112    1.101   .     S
C29    C36     1.436   .     A
C29    C40     1.436   .     A
C36    C37     1.411   .     A
C36    H121    1.102   .     S
C37    C38     1.435   .     A
C37    H122    1.103   .     S
C38    C39     1.437   .     A
C38    C91     1.513   .     A
C39    C40     1.412   .     A
C39    H123    1.103   .     S
C40    H124    1.103   .     S
C11    C22     1.432   .     A
C11    C26     1.431   .     A
C11    C8      1.511   1_655 S
C22    C23     1.413   .     A
C22    H113    1.101   .     S
C23    C24     1.436   .     A
C23    H114    1.102   .     S
C24    C25     1.435   .     A
C24    C30     1.514   .     S
C25    C26     1.410   .     A
C25    H115    1.101   .     S
C26    H116    1.102   .     S
C30    C41     1.434   .     A
C30    C45     1.434   .     A
C41    C42     1.411   .     A
C41    H125    1.101   .     S
C42    C43     1.435   .     A
C42    H126    1.103   .     S
C43    C44     1.436   .     A
C43    C93     1.513   .     S
C44    C45     1.413   .     A
C44    H127    1.102   .     S
C45    H128    1.103   .     S
Zr54   O60     2.111   .     S
Zr54   O63     2.077   .     S
Zr54   O64     2.068   .     S
Zr54   O66     2.067   .     S
Zr54   O70     2.145   .     S
Zr54   O83     2.131   .     S
Zr54   O86     2.144   .     S
Zr55   O61     2.067   .     S
Zr55   O62     2.068   .     S
Zr55   O65     2.112   .     S
Zr55   O67     2.077   .     S
Zr55   O68     2.145   .     S
Zr55   O69     2.131   .     S
Zr55   O85     2.134   .     S
Zr55   O84     2.145   .     S
Zr56   O60     2.066   .     S
Zr56   O62     2.072   .     S
Zr56   O67     2.068   .     S
Zr56   O64     2.109   .     S
Zr56   O71     2.130   .     S
Zr56   O74     2.145   .     S
Zr56   O82     2.144   .     S
Zr56   O79     2.109   .     S
Zr57   O63     2.066   .     S
Zr57   O61     2.110   .     S
Zr57   O65     2.066   .     S
Zr57   O66     2.073   .     S
Zr57   O72     2.145   .     S
Zr57   O73     2.127   .     S
Zr57   O80     2.144   .     S
Zr57   O81     2.109   .     S
Zr58   O60     2.066   .     S
Zr58   O61     2.073   .     S
Zr58   O66     2.110   .     S
Zr58   O67     2.066   .     S
Zr58   O75     2.144   .     S
Zr58   O78     2.109   .     S
Zr58   O88     2.146   .     S
Zr59   O62     2.109   .     S
Zr59   O63     2.067   .     S
Zr59   O65     2.066   .     S
Zr59   O64     2.073   .     S
Zr59   O76     2.109   .     S
Zr59   O77     2.144   .     S
Zr59   O89     2.131   .     S
Zr59   O87     2.146   .     S
O68    C90     1.300   .     A
O69    C91     1.321   .     A
O70    C92     1.300   .     A
O71    C93     1.321   .     A
O72    C94     1.300   .     A
O73    C95     1.320   .     A
O74    C96     1.300   .     A
O75    C97     1.299   .     A
O76    C98     1.312   .     A
O77    C99     1.299   .     A
O78    C100    1.313   .     A
O79    C98     1.313   .     A
O80    C99     1.299   .     A
O81    C100    1.313   .     A
O82    C97     1.299   .     A
O83    C93     1.321   .     A
O84    C96     1.300   .     A
O85    C95     1.322   .     A
O86    C94     1.300   .     A
O87    C92     1.300   .     A
O88    C90     1.300   .     A
O89    C91     1.321   .     A
C90    H133    1.101   .     S
C92    H134    1.102   .     S
C94    H135    1.101   .     S
C96    H136    1.101   .     S
C97    H137    1.101   .     S
C98    H138    1.081   .     S
C99    H139    1.101   .     S
C100   H140    1.081   .     S
