data_2D\Zr-TCBPE-eclipsed
_audit_creation_date              2018-05-07
_audit_creation_method            'Materials Studio'
_symmetry_space_group_name_H-M    'P1'
_symmetry_Int_Tables_number       1
_symmetry_cell_setting            triclinic
loop_
_symmetry_equiv_pos_as_xyz
  x,y,z
_cell_length_a                    25.0000
_cell_length_b                    16.7000
_cell_length_c                    11.3000
_cell_angle_alpha                 90.0000
_cell_angle_beta                  90.0000
_cell_angle_gamma                 90.0000
loop_
_atom_site_label
_atom_site_type_symbol
_atom_site_fract_x
_atom_site_fract_y
_atom_site_fract_z
_atom_site_U_iso_or_equiv
_atom_site_adp_type
_atom_site_occupancy
C1     C     0.85298   0.17308  -0.51887   0.00000  Uiso   1.00
C2     C     0.86057   0.10848  -0.43745   0.00000  Uiso   1.00
C3     C     0.90832   0.06342  -0.43671   0.00000  Uiso   1.00
C4     C     0.94997   0.07932  -0.51970   0.00000  Uiso   1.00
C5     C     0.94283   0.14413  -0.60009   0.00000  Uiso   1.00
C6     C     0.89549   0.19013  -0.59961   0.00000  Uiso   1.00
C7     C     1.00176   0.03143  -0.52082   0.00000  Uiso   1.00
C8     C     1.00168  -0.05158  -0.52106   0.00000  Uiso   1.00
C9     C     1.05286  -0.09969  -0.51809   0.00000  Uiso   1.00
C10    C     1.05362   0.07918  -0.52175   0.00000  Uiso   1.00
C11    C     0.95035  -0.09933  -0.52434   0.00000  Uiso   1.00
C12    C     1.06064   0.14428  -0.44184   0.00000  Uiso   1.00
C13    C     1.10803   0.19014  -0.44209   0.00000  Uiso   1.00
C14    C     1.15075   0.17264  -0.52204   0.00000  Uiso   1.00
C15    C     1.14329   0.10776  -0.60299   0.00000  Uiso   1.00
C16    C     1.09548   0.06286  -0.60402   0.00000  Uiso   1.00
C17    C     1.08732  -0.09850  -0.41695   0.00000  Uiso   1.00
C18    C     1.13502  -0.14385  -0.41595   0.00000  Uiso   1.00
C19    C     1.15026  -0.19086  -0.51688   0.00000  Uiso   1.00
C20    C     1.11545  -0.19187  -0.61775   0.00000  Uiso   1.00
C21    C     1.06732  -0.14791  -0.61764   0.00000  Uiso   1.00
C22    C     0.91666  -0.09935  -0.62687   0.00000  Uiso   1.00
C23    C     0.86889  -0.14453  -0.62833   0.00000  Uiso   1.00
C24    C     0.85279  -0.18986  -0.52641   0.00000  Uiso   1.00
C25    C     0.88674  -0.18959  -0.42405   0.00000  Uiso   1.00
C26    C     0.93505  -0.14607  -0.42378   0.00000  Uiso   1.00
C27    C     1.20222   0.22173  -0.52166   0.00000  Uiso   1.00
C28    C     0.80159   0.22237  -0.51896   0.00000  Uiso   1.00
C29    C     1.20193  -0.23843  -0.51741   0.00000  Uiso   1.00
C30    C     0.80106  -0.23702  -0.52627   0.00000  Uiso   1.00
C31    C     1.22016   0.26215  -0.41619   0.00000  Uiso   1.00
C32    C     1.26777   0.30768  -0.41618   0.00000  Uiso   1.00
C33    C     1.29996   0.31368  -0.52097   0.00000  Uiso   1.00
C34    C     1.28235   0.27335  -0.62618   0.00000  Uiso   1.00
C35    C     1.23435   0.22895  -0.62687   0.00000  Uiso   1.00
C36    C     1.23391  -0.24365  -0.62272   0.00000  Uiso   1.00
C37    C     1.28202  -0.28785  -0.62355   0.00000  Uiso   1.00
C38    C     1.29960  -0.32978  -0.51974   0.00000  Uiso   1.00
C39    C     1.26710  -0.32593  -0.41501   0.00000  Uiso   1.00
C40    C     1.21945  -0.28053  -0.41355   0.00000  Uiso   1.00
C41    C     0.76679  -0.23656  -0.42449   0.00000  Uiso   1.00
C42    C     0.71868  -0.28070  -0.42369   0.00000  Uiso   1.00
C43    C     0.70340  -0.32826  -0.52389   0.00000  Uiso   1.00
C44    C     0.73807  -0.32955  -0.62516   0.00000  Uiso   1.00
C45    C     0.78580  -0.28428  -0.62669   0.00000  Uiso   1.00
C46    C     0.76981   0.23031  -0.41330   0.00000  Uiso   1.00
C47    C     0.72187   0.27486  -0.41376   0.00000  Uiso   1.00
C48    C     0.70399   0.31467  -0.51921   0.00000  Uiso   1.00
C49    C     0.73582   0.30791  -0.62445   0.00000  Uiso   1.00
C50    C     0.78336   0.26222  -0.62465   0.00000  Uiso   1.00
C51    C     0.65230   0.36164  -0.51942   0.00000  Uiso   1.00
O52    O     0.64466   0.41387  -0.60569   0.00000  Uiso   1.00
O53    O     0.61804   0.34690  -0.43317   0.00000  Uiso   1.00
Zr54   Zr    0.57932  -0.50788  -1.64271   0.04604  Uiso   1.00
Zr55   Zr    0.42423  -0.50773  -1.39896   0.04604  Uiso   1.00
Zr56   Zr    0.54018  -0.40781  -1.39944   0.04604  Uiso   1.00
Zr57   Zr    0.46342  -0.60752  -1.64244   0.04604  Uiso   1.00
Zr58   Zr    0.54063  -0.60609  -1.39735   0.04604  Uiso   1.00
Zr59   Zr    0.46284  -0.40928  -1.64423   0.04604  Uiso   1.00
O60    O     0.58243  -0.50700  -1.45600   0.09771  Uiso   1.00
O61    O     0.46211  -0.61078  -1.45580   0.09771  Uiso   1.00
O62    O     0.46161  -0.40467  -1.45773   0.09771  Uiso   1.00
O63    O     0.50214  -0.50846  -1.71072   0.09771  Uiso   1.00
O64    O     0.54142  -0.40474  -1.58602   0.09771  Uiso   1.00
O65    O     0.42111  -0.50843  -1.58569   0.09771  Uiso   1.00
O66    O     0.54195  -0.61086  -1.58388   0.09771  Uiso   1.00
O67    O     0.50141  -0.50689  -1.33099   0.09771  Uiso   1.00
O68    O     0.41885  -0.58321  -1.24586   0.10044  Uiso   1.00
O69    O     0.35895  -0.42944  -1.43511   0.10044  Uiso   1.00
O70    O     0.58460  -0.43256  -1.79603   0.10044  Uiso   1.00
O71    O     0.61734  -0.36007  -1.43703   0.10044  Uiso   1.00
O72    O     0.50483  -0.65354  -1.79418   0.10044  Uiso   1.00
O73    O     0.38609  -0.65466  -1.60635   0.10044  Uiso   1.00
O74    O     0.49879  -0.36192  -1.24762   0.10044  Uiso   1.00
O75    O     0.58722  -0.57515  -1.24476   0.10044  Uiso   1.00
O76    O     0.47436  -0.28654  -1.60862   0.10044  Uiso   1.00
O77    O     0.41618  -0.44010  -1.79673   0.10044  Uiso   1.00
O78    O     0.52916  -0.72883  -1.43322   0.10044  Uiso   1.00
O79    O     0.52809  -0.28552  -1.43765   0.10044  Uiso   1.00
O80    O     0.41684  -0.57844  -1.79584   0.10044  Uiso   1.00
O81    O     0.47532  -0.72981  -1.60402   0.10044  Uiso   1.00
O82    O     0.58693  -0.43680  -1.24627   0.10044  Uiso   1.00
O83    O     0.64443  -0.42905  -1.60728   0.10044  Uiso   1.00
O84    O     0.41867  -0.43139  -1.24685   0.10044  Uiso   1.00
O85    O     0.35911  -0.58660  -1.43514   0.10044  Uiso   1.00
O86    O     0.58504  -0.58438  -1.79456   0.10044  Uiso   1.00
O87    O     0.50398  -0.36441  -1.79714   0.10044  Uiso   1.00
O88    O     0.49955  -0.65105  -1.24445   0.10044  Uiso   1.00
O89    O     0.38543  -0.36209  -1.60735   0.10044  Uiso   1.00
C90    C     0.45265  -0.63422  -1.20154   0.13493  Uiso   1.00
C91    C     0.35127  -0.37691  -1.52085   0.13493  Uiso   1.00
C92    C     0.55082  -0.38146  -1.84026   0.13493  Uiso   1.00
C93    C     0.65178  -0.37559  -1.52267   0.13493  Uiso   1.00
C94    C     0.55160  -0.63638  -1.83759   0.13493  Uiso   1.00
C95    C     0.35167  -0.63940  -1.52069   0.13493  Uiso   1.00
C96    C     0.45210  -0.37933  -1.20393   0.13493  Uiso   1.00
C97    C     0.60031  -0.50571  -1.20187   0.13493  Uiso   1.00
C98    C     0.50113  -0.25114  -1.52350   0.13493  Uiso   1.00
C99    C     0.40329  -0.50953  -1.83995   0.13493  Uiso   1.00
C100   C     0.50230  -0.76421  -1.51824   0.13493  Uiso   1.00
H101   H     0.82946   0.09172  -0.37412   0.00000  Uiso   1.00
H102   H     0.91269   0.01629  -0.37000   0.00000  Uiso   1.00
H103   H     0.97415   0.15934  -0.66405   0.00000  Uiso   1.00
H104   H     0.89285   0.24000  -0.66200   0.00000  Uiso   1.00
H105   H     1.02918   0.15985  -0.37842   0.00000  Uiso   1.00
H106   H     1.11055   0.24026  -0.38015   0.00000  Uiso   1.00
H107   H     1.17457   0.09062  -0.66565   0.00000  Uiso   1.00
H108   H     1.09124   0.01547  -0.67032   0.00000  Uiso   1.00
H109   H     1.07719  -0.06253  -0.33843   0.00000  Uiso   1.00
H110   H     1.16049  -0.14100  -0.33662   0.00000  Uiso   1.00
H111   H     1.12505  -0.22769  -0.69671   0.00000  Uiso   1.00
H112   H     1.04165  -0.15037  -0.69675   0.00000  Uiso   1.00
H113   H     0.92749  -0.06457  -0.70613   0.00000  Uiso   1.00
H114   H     0.84398  -0.14288  -0.70873   0.00000  Uiso   1.00
H115   H     0.87622  -0.22406  -0.34427   0.00000  Uiso   1.00
H116   H     0.96017  -0.14767  -0.34366   0.00000  Uiso   1.00
H117   H     1.19804   0.25773  -0.33201   0.00000  Uiso   1.00
H118   H     1.27989   0.33708  -0.33288   0.00000  Uiso   1.00
H119   H     1.30546   0.27683  -0.70927   0.00000  Uiso   1.00
H120   H     1.22230   0.20119  -0.71133   0.00000  Uiso   1.00
H121   H     1.22205  -0.21290  -0.70491   0.00000  Uiso   1.00
H122   H     1.30526  -0.28972  -0.70645   0.00000  Uiso   1.00
H123   H     1.27859  -0.35804  -0.33357   0.00000  Uiso   1.00
H124   H     1.19558  -0.27991  -0.33142   0.00000  Uiso   1.00
H125   H     0.77683  -0.20095  -0.34553   0.00000  Uiso   1.00
H126   H     0.69353  -0.27789  -0.34361   0.00000  Uiso   1.00
H127   H     0.72836  -0.36580  -0.70377   0.00000  Uiso   1.00
H128   H     0.81152  -0.28767  -0.70579   0.00000  Uiso   1.00
H129   H     0.78210   0.20297  -0.32870   0.00000  Uiso   1.00
H130   H     0.69901   0.27884  -0.33036   0.00000  Uiso   1.00
H131   H     0.72347   0.33685  -0.70794   0.00000  Uiso   1.00
H132   H     0.80522   0.25723  -0.70913   0.00000  Uiso   1.00
H133   H     0.44047  -0.66595  -1.12045   0.00000  Uiso   1.00
H134   H     0.56297  -0.34982  -1.92146   0.00000  Uiso   1.00
H135   H     0.56401  -0.66881  -1.91787   0.00000  Uiso   1.00
H136   H     0.43977  -0.34710  -1.12341   0.00000  Uiso   1.00
H137   H     0.62489  -0.50521  -1.12100   0.00000  Uiso   1.00
H138   H     0.50100  -0.18641  -1.52418   0.00000  Uiso   1.00
H139   H     0.37874  -0.51002  -1.92085   0.00000  Uiso   1.00
H140   H     0.50240  -0.82894  -1.51751   0.00000  Uiso   1.00
loop_
_geom_bond_atom_site_label_1
_geom_bond_atom_site_label_2
_geom_bond_distance
_geom_bond_site_symmetry_2
_ccdc_geom_bond_type
C1     C2      1.431   .     A
C1     C6      1.429   .     A
C1     C28     1.526   .     S
C2     C3      1.411   .     A
C2     H101    1.093   .     S
C3     C4      1.426   .     A
C3     H102    1.095   .     S
C4     C5      1.424   .     A
C4     C7      1.522   .     S
C5     C6      1.411   .     A
C5     H103    1.095   .     S
C6     H104    1.093   .     S
C7     C8      1.386   .     D
C7     C10     1.522   .     S
C8     C9      1.511   .     S
C8     C11     1.511   .     S
C9     C17     1.431   .     A
C9     C21     1.430   .     A
C10    C12     1.424   .     A
C10    C16     1.426   .     A
C11    C22     1.432   .     A
C11    C26     1.431   .     A
C12    C13     1.411   .     A
C12    H105    1.095   .     S
C13    C14     1.429   .     A
C13    H106    1.093   .     S
C14    C15     1.430   .     A
C14    C27     1.526   .     S
C15    C16     1.411   .     A
C15    H107    1.093   .     S
C16    H108    1.095   .     S
C17    C18     1.413   .     A
C17    H109    1.101   .     S
C18    C19     1.436   .     A
C18    H110    1.101   .     S
C19    C20     1.434   .     A
C19    C29     1.516   .     S
C20    C21     1.410   .     A
C20    H111    1.101   .     S
C21    H112    1.101   .     S
C22    C23     1.413   .     A
C22    H113    1.101   .     S
C23    C24     1.436   .     A
C23    H114    1.102   .     S
C24    C25     1.435   .     A
C24    C30     1.514   .     S
C25    C26     1.410   .     A
C25    H115    1.101   .     S
C26    H116    1.102   .     S
C27    C31     1.441   .     A
C27    C35     1.440   .     A
C28    C46     1.440   .     A
C28    C50     1.441   .     A
C29    C36     1.436   .     A
C29    C40     1.436   .     A
C30    C41     1.434   .     A
C30    C45     1.434   .     A
C31    C32     1.412   .     A
C31    H117    1.103   .     S
C32    C33     1.435   .     A
C32    H118    1.104   .     S
C33    C34     1.436   .     A
C33    C95     1.512   1_666 A
C34    C35     1.411   .     A
C34    H119    1.104   .     S
C35    H120    1.103   .     S
C36    C37     1.411   .     A
C36    H121    1.102   .     S
C37    C38     1.435   .     A
C37    H122    1.103   .     S
C38    C39     1.437   .     A
C38    C91     1.513   1_656 A
C39    C40     1.412   .     A
C39    H123    1.103   .     S
C40    H124    1.103   .     S
C41    C42     1.411   .     A
C41    H125    1.101   .     S
C42    C43     1.435   .     A
C42    H126    1.103   .     S
C43    C44     1.436   .     A
C43    C93     1.513   1_556 S
C44    C45     1.413   .     A
C44    H127    1.102   .     S
C45    H128    1.103   .     S
C46    C47     1.411   .     A
C46    H129    1.103   .     S
C47    C48     1.436   .     A
C47    H130    1.104   .     S
C48    C49     1.435   .     A
C48    C51     1.512   .     S
C49    C50     1.412   .     A
C49    H131    1.104   .     S
C50    H132    1.103   .     S
C51    O52     1.322   .     A
C51    O53     1.321   .     A
O52    Zr54    2.133   1_566 A
O53    Zr58    2.127   1_566 S
Zr54   O60     2.111   .     S
Zr54   O63     2.077   .     S
Zr54   O64     2.068   .     S
Zr54   O66     2.067   .     S
Zr54   O70     2.145   .     S
Zr54   O83     2.131   .     S
Zr54   O86     2.144   .     S
Zr54   O52     2.133   1_544 A
Zr55   O61     2.067   .     S
Zr55   O62     2.068   .     S
Zr55   O65     2.112   .     S
Zr55   O67     2.077   .     S
Zr55   O68     2.145   .     S
Zr55   O69     2.131   .     S
Zr55   O85     2.134   .     S
Zr55   O84     2.145   .     S
Zr56   O60     2.066   .     S
Zr56   O62     2.072   .     S
Zr56   O67     2.068   .     S
Zr56   O64     2.109   .     S
Zr56   O71     2.130   .     S
Zr56   O74     2.145   .     S
Zr56   O82     2.144   .     S
Zr56   O79     2.109   .     S
Zr57   O63     2.066   .     S
Zr57   O61     2.110   .     S
Zr57   O65     2.066   .     S
Zr57   O66     2.073   .     S
Zr57   O72     2.145   .     S
Zr57   O73     2.127   .     S
Zr57   O80     2.144   .     S
Zr57   O81     2.109   .     S
Zr58   O60     2.066   .     S
Zr58   O61     2.073   .     S
Zr58   O66     2.110   .     S
Zr58   O67     2.066   .     S
Zr58   O75     2.144   .     S
Zr58   O78     2.109   .     S
Zr58   O88     2.146   .     S
Zr58   O53     2.127   1_544 S
Zr59   O62     2.109   .     S
Zr59   O63     2.067   .     S
Zr59   O65     2.066   .     S
Zr59   O64     2.073   .     S
Zr59   O76     2.109   .     S
Zr59   O77     2.144   .     S
Zr59   O89     2.131   .     S
Zr59   O87     2.146   .     S
O68    C90     1.300   .     A
O69    C91     1.321   .     A
O70    C92     1.300   .     A
O71    C93     1.321   .     A
O72    C94     1.300   .     A
O73    C95     1.320   .     A
O74    C96     1.300   .     A
O75    C97     1.299   .     A
O76    C98     1.312   .     A
O77    C99     1.299   .     A
O78    C100    1.313   .     A
O79    C98     1.313   .     A
O80    C99     1.299   .     A
O81    C100    1.313   .     A
O82    C97     1.299   .     A
O83    C93     1.321   .     A
O84    C96     1.300   .     A
O85    C95     1.322   .     A
O86    C94     1.300   .     A
O87    C92     1.300   .     A
O88    C90     1.300   .     A
O89    C91     1.321   .     A
C90    H133    1.101   .     S
C91    C38     1.513   1_454 A
C92    H134    1.102   .     S
C93    C43     1.513   1_554 S
C94    H135    1.101   .     S
C95    C33     1.512   1_444 A
C96    H136    1.101   .     S
C97    H137    1.101   .     S
C98    H138    1.081   .     S
C99    H139    1.101   .     S
C100   H140    1.081   .     S